THERMO
 200.001  1000.000 6000.00
O                 L 1/90O   1    0    0    0G   200.000  6000.000 1000.        1
 3.16826710E+00-3.27931884E-03 6.64306396E-06-6.12806624E-09 2.11265971E-12    2
 2.92260120E+04 2.05193346E+00 2.54363697E+00-2.73162486E-05-4.19029520E-09    3
 4.95481845E-12-4.79553694E-16 2.91222592E+04 4.92229457E+00                   4
O2 singlet        ATcT06O  2.   0.   0.   0.G   200.000  6000.000 1000.        1
 3.78245636E+00-2.99673415E-03 9.84730200E-06-9.68129508E-09 3.24372836E-12    2
-1.06394356E+03 3.65767573E+00 3.66096083E+00 6.56365523E-04-1.41149485E-07    3
 2.05797658E-11-1.29913248E-15-1.21597725E+03 3.41536184E+00                   4
AL                g12/97AL 1.   0.   0.   0.G   200.000  6000.000 1000.        1
 3.11112433E+00-3.59382310E-03 8.14749313E-06-8.08808966E-09 2.93132463E-12    2
 3.89410793E+04 2.84045724E+00 2.53385701E+00-4.65859492E-05 2.82798048E-08    3
-8.54362013E-12 1.02207983E-15 3.88641504E+04 5.37984173E+00                   4
ALO               tpis96Al 1.O  1.   0.   0.G   300.000  6000.000 1000.        1
 2.87812691E+00 3.95842610E-03-3.36953040E-06 6.73304970E-10 4.00894550E-13    2
 7.28872515E+03 9.56556843E+00 3.34913178E+00 1.04524210E-03 2.74855330E-07    3
-1.79286060E-10 1.99878130E-14 7.05728468E+03 7.20963423E+00                   4
ALO2              tpis96Al 1.O  2.   0.   0.G   300.000  5000.000 1000.        1
 3.25451480E+00 1.42758440E-02-2.11032480E-05 1.50562590E-08-4.21426140E-12    2
-1.18125820E+04 8.30255493E+00 6.60646410E+00 1.08022520E-03-5.22293440E-07    3
 1.13242200E-10-8.52909680E-15-1.25324320E+04-8.01717587E+00                   4
AL2O2             tpis96AL 2.O  2.   0.   0.G   300.000  5000.000 1000.        1
 2.75964110E+00 2.99975990E-02-5.21904970E-05 4.22826860E-08-1.30753600E-11    2
-4.92260320E+04 1.11007720E+01 9.15909760E+00 9.68539270E-04-4.32585130E-07    3
 8.51788400E-11-6.16153700E-15-5.04957125E+04-1.91564680E+01                   4
AL2O3(S)          tpis96AL 2.O  3.   0.   0.G   300.000  2327.000 1000.        1
-4.91383090E+00 7.93984430E-02-1.32379180E-04 1.04467500E-07-3.15663300E-11    2
-2.02626220E+05 1.54780730E+01 1.18336660E+01 3.77088780E-03-1.78631910E-07    3
-5.60088070E-10 1.40768250E-13-2.05711310E+05-6.35998350E+01                   4
! There are several forms of Al2O3 to choose from garfield.chem.elte.hu
AL2O              tpis96AL 2.O  1.   0.   0.G   300.000  5000.000 1000.        1
 4.07326560E+00 1.13076130E-02-1.65651620E-05 1.17842840E-08-3.30055030E-12    2
-1.90542300E+04 4.40834831E+00 6.77206270E+00 8.25500920E-04-3.62910010E-07    3
 6.95313000E-11-4.73452110E-15-1.94653414E+04-8.77233129E+00                   4
AL(L) REF ELEMEN  T 3/10AL 1.   0.   0.   0.L   933.610  6000.000 1000.        1
 3.83089866E+00 0.00000000E+00 0.00000000E+00 0.00000000E+00 0.00000000E+00    2
-9.97961566E+01-1.75914374E+01 3.82018990E+00 0.00000000E+00 0.00000000E+00    3
 0.00000000E+00 0.00000000E+00-9.57094068E+01-1.75321254E+01                   4
AL2O3(L)          coda89AL 2.O  3.   0.   0.C  2327.000  6000.000 1000.        1
 2.31482410E+01 0.00000000E+00 0.00000000E+00 0.00000000E+00 0.00000000E+00    2
-2.02769330E+05-1.10862203E+02 2.31482410E+01 0.00000000E+00 0.00000000E+00    3
 0.00000000E+00 0.00000000E+00-2.11405200E+05-1.38602050E+02                   4
END